# CIF file generated by openbabel 2.4.90, see http://openbabel.sf.net
data_I
_chemical_name_common ''
_cell_length_a 6.5472
_cell_length_b 7.5305
_cell_length_c 12.7118
_cell_angle_alpha 107.23
_cell_angle_beta 103.555
_cell_angle_gamma 90
_space_group_name_H-M_alt 'P 1'
_space_group_name_Hall 'P 1'
loop_
    _symmetry_equiv_pos_as_xyz
    x,y,z
loop_
    _atom_site_label
    _atom_site_type_symbol
    _atom_site_fract_x
    _atom_site_fract_y
    _atom_site_fract_z
    _atom_site_occupancy
    Al0     Al   0.50000   0.00000   0.00000   1.000
    C1      C    0.06860   0.08680   0.71160   1.000
    C2      C    0.20100   0.00450   0.63300   1.000
    C3      C    0.22940   0.90170   0.43940   1.000
    C4      C    0.15400   0.08900   0.82600   1.000
    C5      C    0.09600   0.96100   0.51600   1.000
    C6      C    0.87100   0.13300   0.67800   1.000
    C7      C    0.43140   0.37520   0.28840   1.000
    C8      C    0.29900   0.37150   0.36700   1.000
    C9      C    0.27060   0.46230   0.56060   1.000
    C10     C    0.34600   0.26300   0.17400   1.000
    C11     C    0.40400   0.44500   0.48400   1.000
    C12     C    0.62900   0.45500   0.32200   1.000
    C13     C    0.93140   0.91320   0.28840   1.000
    C14     C    0.79900   0.99550   0.36700   1.000
    C15     C    0.77060   0.09830   0.56060   1.000
    C16     C    0.84600   0.91100   0.17400   1.000
    C17     C    0.90400   0.03900   0.48400   1.000
    C18     C    0.12900   0.86700   0.32200   1.000
    C19     C    0.56860   0.62480   0.71160   1.000
    C20     C    0.70100   0.62850   0.63300   1.000
    C21     C    0.72940   0.53770   0.43940   1.000
    C22     C    0.65400   0.73700   0.82600   1.000
    C23     C    0.59600   0.55500   0.51600   1.000
    C24     C    0.37100   0.54500   0.67800   1.000
    O25     O    0.06100   0.12850   0.90700   1.000
    O26     O    0.34840   0.07040   0.86440   1.000
    Al27    Al   0.00000   0.00000   0.00000   1.000
    O28     O    0.43900   0.22150   0.09300   1.000
    O29     O    0.15160   0.20600   0.13560   1.000
    O30     O    0.93900   0.87150   0.09300   1.000
    O31     O    0.65160   0.92960   0.13560   1.000
    O32     O    0.56100   0.77850   0.90700   1.000
    O33     O    0.84840   0.79400   0.86440   1.000
    O34     O    0.25000   0.90100   0.00000   1.000
    O35     O    0.75000   0.09900   0.00000   1.000
    H36     H    0.37228   0.98088   0.66791   1.000
    H37     H    0.40317   0.88523   0.47373   1.000
    H38     H    0.77996   0.20144   0.74384   1.000
    H39     H    0.12772   0.31297   0.33209   1.000
    H40     H    0.09683   0.41150   0.52627   1.000
    H41     H    0.72004   0.45760   0.25616   1.000
    H42     H    0.62772   0.01912   0.33209   1.000
    H43     H    0.59561   0.11828   0.53353   1.000
    H44     H    0.22004   0.79856   0.25616   1.000
    H45     H    0.87228   0.68703   0.66791   1.000
    H46     H    0.90439   0.58475   0.46647   1.000
    H47     H    0.28343   0.54427   0.74555   1.000
loop_
    _geom_bond_atom_site_label_1
    _geom_bond_atom_site_label_2
    _geom_bond_distance
    _geom_bond_site_symmetry_2
    _ccdc_geom_bond_type
    Al0    O34       1.79859  1_545   S
    Al0    O35       1.79859      .   S
    Al0    O28       1.84186      .   S
    Al0    O31       1.99419  1_545   S
    Al0    O26       1.99419  1_554   S
    Al0    O32       1.84186  1_544   S
    Al27   O34       1.79859  1_545   S
    Al27   O35       1.79859  1_455   S
    Al27   O30       1.84188  1_445   S
    Al27   O29       1.99418      .   S
    Al27   O33       1.99418  1_444   S
    Al27   O25       1.84188  1_554   S
    O28    C10       1.27744      .   S
    O30    C16       1.27744      .   S
    O29    C10       1.27559      .   S
    O31    C16       1.27559      .   S
    C10    C7        1.42557      .   S
    C16    C13       1.42558      .   S
    H41    C12       1.14004      .   S
    H44    C18       1.14004      .   S
    C7     C12       1.34395      .   S
    C7     C8        1.47411      .   S
    C13    C18       1.34395  1_655   S
    C13    C14       1.47410      .   S
    C12    C21       1.42711      .   S
    C18    C3        1.42712      .   S
    H39    C8        1.14000      .   S
    H42    C14       1.14000  1_545   S
    C14    C17       1.42268  1_565   S
    C8     C11       1.42267      .   S
    C3     H37       1.13997      .   S
    C3     C5        1.43228      .   S
    C21    H46       1.13997      .   S
    C21    C23       1.43228      .   S
    C17    C5        1.41157  1_645   S
    C17    C15       1.43228      .   S
    C11    C23       1.41157      .   S
    C11    C9        1.43228      .   S
    C23    C20       1.42267      .   S
    C5     C2        1.42268  1_565   S
    H40    C9        1.13997      .   S
    H43    C15       1.13997      .   S
    C15    C6        1.42712      .   S
    C9     C24       1.42711      .   S
    C20    H45       1.14000      .   S
    C20    C19       1.47411      .   S
    C2     H36       1.14000  1_545   S
    C2     C1        1.47410      .   S
    C24    C19       1.34395      .   S
    C24    H47       1.14002      .   S
    C6     C1        1.34395  1_655   S
    C6     H38       1.14004      .   S
    C1     C4        1.42558      .   S
    C19    C22       1.42557      .   S
    C4     O26       1.27559      .   S
    C4     O25       1.27744      .   S
    C22    O33       1.27559      .   S
    C22    O32       1.27744      .   S
