# CIF file generated by openbabel 2.4.90, see http://openbabel.sf.net
data_I
_chemical_name_common ''
_cell_length_a 24.7318
_cell_length_b 24.7318
_cell_length_c 24.7318
_cell_angle_alpha 127.653
_cell_angle_beta 127.653
_cell_angle_gamma 77.1881
_space_group_name_H-M_alt 'P 1'
_space_group_name_Hall 'P 1'
loop_
    _symmetry_equiv_pos_as_xyz
    x,y,z
loop_
    _atom_site_label
    _atom_site_type_symbol
    _atom_site_fract_x
    _atom_site_fract_y
    _atom_site_fract_z
    _atom_site_occupancy
    C0      C    0.87325   0.51255   0.88210   1.000
    C1      C    0.60238   0.48688   0.59510   1.000
    O2      O    0.86935   0.49565   0.91790   1.000
    O3      O    0.92840   0.53080   0.89880   1.000
    O4      O    0.54716   0.47156   0.58000   1.000
    O5      O    0.94963   0.39453   0.89470   1.000
    Zn6     Zn   0.54891   0.02470   0.99627   1.000
    Zn7     Zn   0.02843   0.55264   0.00373   1.000
    C8      C    0.63045   0.99115   0.11790   1.000
    C9      C    0.89178   0.00728   0.40490   1.000
    O10     O    0.57775   0.95145   0.08210   1.000
    O11     O    0.63200   0.02960   0.10120   1.000
    O12     O    0.89156   0.96716   0.42000   1.000
    O13     O    0.49983   0.05493   0.10530   1.000
    Zn14    Zn   0.30264   0.79891   0.02421   1.000
    C15     C    0.26255   0.88045   0.13930   1.000
    C16     C    0.23688   0.14178   0.38450   1.000
    O17     O    0.24565   0.82775   0.12630   1.000
    O18     O    0.28080   0.88200   0.10240   1.000
    O19     O    0.22156   0.14156   0.42440   1.000
    O20     O    0.14453   0.74983   0.94490   1.000
    Zn21    Zn   0.77470   0.27843   0.97579   1.000
    C22     C    0.74115   0.12325   0.86070   1.000
    C23     C    0.75728   0.85238   0.61550   1.000
    O24     O    0.70145   0.11935   0.87370   1.000
    O25     O    0.77960   0.17840   0.89760   1.000
    O26     O    0.71716   0.79716   0.57560   1.000
    O27     O    0.80493   0.19963   0.05510   1.000
    Zn28    Zn   0.70109   0.19736   0.97579   1.000
    C29     C    0.61955   0.23745   0.86070   1.000
    C30     C    0.35822   0.26312   0.61550   1.000
    O31     O    0.67225   0.25435   0.87370   1.000
    O32     O    0.61800   0.21920   0.89760   1.000
    O33     O    0.35844   0.27844   0.57560   1.000
    O34     O    0.75017   0.35547   0.05510   1.000
    O35     O    0.17225   0.29855   0.41790   1.000
    O36     O    0.11800   0.22040   0.39880   1.000
    Zn37    Zn   0.22157   0.72530   0.02421   1.000
    C38     C    0.37675   0.75885   0.13930   1.000
    C39     C    0.64762   0.74272   0.38450   1.000
    O40     O    0.38065   0.79855   0.12630   1.000
    O41     O    0.32160   0.72040   0.10240   1.000
    O42     O    0.70284   0.78284   0.42440   1.000
    O43     O    0.30037   0.69507   0.94490   1.000
    Zn44    Zn   0.47530   0.95109   0.00373   1.000
    C45     C    0.50885   0.86955   0.88210   1.000
    C46     C    0.49272   0.60822   0.59510   1.000
    O47     O    0.54855   0.92225   0.91790   1.000
    O48     O    0.47040   0.86800   0.89880   1.000
    O49     O    0.53284   0.60844   0.58000   1.000
    O50     O    0.44507   0.00017   0.89470   1.000
    Zn51    Zn   0.94736   0.47157   0.99627   1.000
    C52     C    0.98745   0.62675   0.11790   1.000
    C53     C    0.01312   0.89762   0.40490   1.000
    O54     O    0.00435   0.63065   0.08210   1.000
    O55     O    0.96920   0.57160   0.10120   1.000
    O56     O    0.02844   0.95284   0.42000   1.000
    O57     O    0.10547   0.55037   0.10530   1.000
    Zn58    Zn   0.72157   0.69736   0.49627   1.000
    C59     C    0.87675   0.73745   0.61790   1.000
    C60     C    0.14762   0.76312   0.90490   1.000
    O61     O    0.88065   0.75435   0.58210   1.000
    O62     O    0.82160   0.71920   0.60120   1.000
    O63     O    0.20284   0.77844   0.92000   1.000
    O64     O    0.80037   0.85547   0.60530   1.000
    Zn65    Zn   0.20109   0.22530   0.50373   1.000
    C66     C    0.11955   0.25885   0.38210   1.000
    C67     C    0.85822   0.24272   0.09510   1.000
    O68     O    0.85844   0.28284   0.08000   1.000
    O69     O    0.25017   0.19507   0.39470   1.000
    Zn70    Zn   0.44736   0.45109   0.47579   1.000
    C71     C    0.48745   0.36955   0.36070   1.000
    C72     C    0.51312   0.10822   0.11550   1.000
    O73     O    0.50435   0.42225   0.37370   1.000
    O74     O    0.46920   0.36800   0.39760   1.000
    O75     O    0.52844   0.10844   0.07560   1.000
    O76     O    0.60547   0.50017   0.55510   1.000
    Zn77    Zn   0.97530   0.97157   0.52421   1.000
    C78     C    0.00885   0.12675   0.63930   1.000
    C79     C    0.99272   0.39762   0.88450   1.000
    O80     O    0.04855   0.13065   0.62630   1.000
    O81     O    0.97040   0.07160   0.60240   1.000
    O82     O    0.03284   0.45284   0.92440   1.000
    O83     O    0.94507   0.05037   0.44490   1.000
    Zn84    Zn   0.04891   0.05264   0.52421   1.000
    C85     C    0.13045   0.01255   0.63930   1.000
    C86     C    0.39178   0.98688   0.88450   1.000
    O87     O    0.07775   0.99565   0.62630   1.000
    O88     O    0.13200   0.03080   0.60240   1.000
    O89     O    0.39156   0.97156   0.92440   1.000
    O90     O    0.99983   0.89453   0.44490   1.000
    Zn91    Zn   0.52843   0.52470   0.47579   1.000
    C92     C    0.37325   0.49115   0.36070   1.000
    C93     C    0.10238   0.50728   0.11550   1.000
    O94     O    0.36935   0.45145   0.37370   1.000
    O95     O    0.42840   0.52960   0.39760   1.000
    O96     O    0.04716   0.46716   0.07560   1.000
    O97     O    0.44963   0.55493   0.55510   1.000
    Zn98    Zn   0.27470   0.29891   0.49627   1.000
    C99     C    0.24115   0.38045   0.61790   1.000
    C100    C    0.25728   0.64178   0.90490   1.000
    O101    O    0.20145   0.32775   0.58210   1.000
    O102    O    0.27960   0.38200   0.60120   1.000
    O103    O    0.21716   0.64156   0.92000   1.000
    O104    O    0.30493   0.24983   0.60530   1.000
    Zn105   Zn   0.80264   0.77843   0.50373   1.000
    C106    C    0.76255   0.62325   0.38210   1.000
    C107    C    0.73688   0.35238   0.09510   1.000
    O108    O    0.74565   0.61935   0.41790   1.000
    O109    O    0.78080   0.67840   0.39880   1.000
    O110    O    0.72156   0.29716   0.08000   1.000
    O111    O    0.64453   0.69963   0.39470   1.000
loop_
    _geom_bond_atom_site_label_1
    _geom_bond_atom_site_label_2
    _geom_bond_distance
    _geom_bond_site_symmetry_2
    _ccdc_geom_bond_type
    Zn7    O54       2.04100      .   S
    Zn7    O57       2.05449      .   S
    Zn7    O3        2.04522  1_454   S
    Zn7    O82       2.04425  1_554   S
    Zn44   O10       2.04099      .   S
    Zn44   O13       2.05448  1_565   S
    Zn44   O48       2.04522  1_554   S
    Zn44   O89       2.04426  1_554   S
    Zn14   O18       2.04522      .   S
    Zn14   O40       2.04099      .   S
    Zn14   O63       2.04425  1_554   S
    Zn14   O43       2.05449  1_554   S
    Zn37   O41       2.04522      .   S
    Zn37   O17       2.04099      .   S
    Zn37   O103      2.04425  1_554   S
    Zn37   O20       2.05449  1_554   S
    O34    C107      1.26226      .   S
    O34    Zn21      2.05449  1_554   S
    O27    C67       1.26226      .   S
    O27    Zn28      2.05449  1_554   S
    O96    C93       1.25763      .   S
    O96    Zn51      2.04425  1_454   S
    O75    C72       1.25763      .   S
    O75    Zn6       2.04426  1_554   S
    O110   C107      1.25763      .   S
    O110   Zn28      2.04425  1_554   S
    O68    C67       1.25763      .   S
    O68    Zn21      2.04425  1_554   S
    O54    C52       1.24189  1_455   S
    O10    C8        1.24188      .   S
    O55    C52       1.26163      .   S
    O55    Zn51      2.04522  1_554   S
    O11    C8        1.26163  1_545   S
    O11    Zn6       2.04522  1_554   S
    O18    C15       1.26163      .   S
    O41    C38       1.26162      .   S
    O13    C72       1.26226      .   S
    O57    C93       1.26226      .   S
    O17    C15       1.24188      .   S
    O40    C38       1.24189      .   S
    C92    O94       1.24189      .   S
    C92    O95       1.26162      .   S
    C71    O73       1.24188      .   S
    C71    O74       1.26163      .   S
    O94    Zn70      2.04099      .   S
    O73    Zn91      2.04099      .   S
    C106   O109      1.26163      .   S
    C106   O108      1.24189      .   S
    C66    O36       1.26163      .   S
    C66    O35       1.24188      .   S
    C16    O69       1.26226      .   S
    C16    O19       1.25763      .   S
    C39    O111      1.26226      .   S
    C39    O42       1.25763      .   S
    O111   Zn58      2.05449      .   S
    O69    Zn98      2.05448      .   S
    O74    Zn70      2.04522      .   S
    O95    Zn91      2.04522      .   S
    O36    Zn65      2.04522      .   S
    O109   Zn105     2.04522      .   S
    C53    O56       1.25763      .   S
    C53    O90       1.26226  1_455   S
    C9     O12       1.25763  1_545   S
    C9     O83       1.26226      .   S
    O108   Zn58      2.04100      .   S
    O35    Zn98      2.04099      .   S
    O12    Zn77      2.04425      .   S
    O56    Zn84      2.04425  1_565   S
    O19    Zn65      2.04426      .   S
    O42    Zn105     2.04425      .   S
    O83    Zn84      2.05449  1_655   S
    O90    Zn77      2.05449      .   S
    Zn70   O97       2.05449      .   S
    Zn70   O4        2.04425      .   S
    Zn91   O76       2.05449      .   S
    Zn91   O49       2.04425      .   S
    Zn98   O33       2.04426      .   S
    Zn98   O102      2.04522      .   S
    Zn58   O26       2.04425      .   S
    Zn58   O62       2.04522      .   S
    Zn65   O101      2.04099      .   S
    Zn65   O104      2.05448      .   S
    Zn105  O61       2.04100      .   S
    Zn105  O64       2.05449      .   S
    Zn84   O88       2.04522      .   S
    Zn84   O80       2.04099      .   S
    Zn77   O81       2.04522  1_565   S
    Zn77   O87       2.04099  1_655   S
    O76    C1        1.26226      .   S
    O97    C46       1.26226      .   S
    O33    C30       1.25763      .   S
    O26    C23       1.25763      .   S
    O4     C1        1.25763      .   S
    O49    C46       1.25763      .   S
    O61    C59       1.24189      .   S
    O101   C99       1.24188      .   S
    O102   C99       1.26163      .   S
    O62    C59       1.26163      .   S
    O81    C78       1.26162  1_655   S
    O88    C85       1.26163      .   S
    O104   C30       1.26226      .   S
    O64    C23       1.26226      .   S
    O87    C85       1.24188  1_565   S
    O80    C78       1.24189      .   S
    C29    O31       1.24188      .   S
    C29    O32       1.26163      .   S
    C22    O24       1.24189      .   S
    C22    O25       1.26162      .   S
    O31    Zn21      2.04099      .   S
    O24    Zn28      2.04099      .   S
    C45    O48       1.26163      .   S
    C45    O47       1.24188      .   S
    C0     O3        1.26163      .   S
    C0     O2        1.24189      .   S
    C86    O50       1.26226  1_565   S
    C86    O89       1.25763      .   S
    C79    O5        1.26226      .   S
    C79    O82       1.25763  1_655   S
    O5     Zn51      2.05449      .   S
    O50    Zn6       2.05448      .   S
    O25    Zn21      2.04522      .   S
    O32    Zn28      2.04522      .   S
    C60    O63       1.25763      .   S
    C60    O20       1.26226      .   S
    C100   O103      1.25763      .   S
    C100   O43       1.26226      .   S
    O47    Zn6       2.04099  1_565   S
    O2     Zn51      2.04100      .   S
    Zn7    Zn51      2.99218  1_454   S
    Zn6    Zn44      2.99218  1_546   S
    Zn14   Zn37      2.99218      .   S
    Zn21   Zn28      2.99218      .   S
    Zn58   Zn105     2.99218      .   S
    Zn65   Zn98      2.99218      .   S
    Zn70   Zn91      2.99218      .   S
    Zn77   Zn84      2.99218  1_665   S
