# CIF file generated by openbabel 2.4.90, see http://openbabel.sf.net
data_I
_chemical_name_common ''
_cell_length_a 15.632
_cell_length_b 21.362
_cell_length_c 17.955
_cell_angle_alpha 89.939
_cell_angle_beta 90.238
_cell_angle_gamma 90.004
_space_group_name_H-M_alt 'P 1'
_space_group_name_Hall 'P 1'
loop_
    _symmetry_equiv_pos_as_xyz
    x,y,z
loop_
    _atom_site_label
    _atom_site_type_symbol
    _atom_site_fract_x
    _atom_site_fract_y
    _atom_site_fract_z
    _atom_site_occupancy
    P0      P    0.42127   0.21457   0.70685   1.000
    P1      P    0.42126   0.71518   0.70698   1.000
    P2      P    0.92126   0.21457   0.70685   1.000
    P3      P    0.92125   0.71518   0.70698   1.000
    P4      P    0.32711   0.46470   0.79284   1.000
    P5      P    0.32690   0.96521   0.79292   1.000
    P6      P    0.82710   0.46470   0.79284   1.000
    P7      P    0.82689   0.96521   0.79292   1.000
    P8      P    0.07873   0.28483   0.29304   1.000
    P9      P    0.07872   0.78544   0.29317   1.000
    P10     P    0.57872   0.28483   0.29304   1.000
    P11     P    0.57871   0.78544   0.29317   1.000
    P12     P    0.17309   0.03480   0.20710   1.000
    P13     P    0.17288   0.53531   0.20717   1.000
    P14     P    0.67308   0.03480   0.20710   1.000
    P15     P    0.67288   0.53531   0.20717   1.000
    H16     H    0.04920   0.19169   0.81298   1.000
    H17     H    0.04966   0.69172   0.81278   1.000
    H18     H    0.54919   0.19169   0.81298   1.000
    H19     H    0.54966   0.69172   0.81278   1.000
    H20     H    0.11007   0.22490   0.74186   1.000
    H21     H    0.11091   0.72463   0.74170   1.000
    H22     H    0.61006   0.22490   0.74186   1.000
    H23     H    0.61090   0.72463   0.74170   1.000
    H24     H    0.49523   0.15005   0.58264   1.000
    H25     H    0.49502   0.65070   0.58237   1.000
    H26     H    0.99522   0.15005   0.58264   1.000
    H27     H    0.99501   0.65070   0.58237   1.000
    H28     H    0.08848   0.11284   0.61454   1.000
    H29     H    0.08842   0.61354   0.61409   1.000
    H30     H    0.58847   0.11284   0.61454   1.000
    H31     H    0.58841   0.61354   0.61409   1.000
    H32     H    0.16862   0.21028   0.62094   1.000
    H33     H    0.16822   0.71118   0.62093   1.000
    H34     H    0.66861   0.21028   0.62094   1.000
    H35     H    0.66821   0.71118   0.62093   1.000
    H36     H    0.07551   0.25648   0.61611   1.000
    H37     H    0.07494   0.75718   0.61612   1.000
    H38     H    0.57550   0.25648   0.61611   1.000
    H39     H    0.57493   0.75718   0.61612   1.000
    H40     H    0.19887   0.44192   0.68699   1.000
    H41     H    0.19835   0.94228   0.68706   1.000
    H42     H    0.69886   0.44192   0.68699   1.000
    H43     H    0.69835   0.94228   0.68706   1.000
    H44     H    0.13811   0.47485   0.75828   1.000
    H45     H    0.13719   0.97499   0.75823   1.000
    H46     H    0.63811   0.47485   0.75828   1.000
    H47     H    0.63718   0.97499   0.75823   1.000
    H48     H    0.25347   0.39931   0.91709   1.000
    H49     H    0.25315   0.90043   0.91731   1.000
    H50     H    0.75346   0.39931   0.91709   1.000
    H51     H    0.75314   0.90043   0.91731   1.000
    H52     H    0.15949   0.36307   0.88530   1.000
    H53     H    0.15946   0.86371   0.88562   1.000
    H54     H    0.65948   0.36307   0.88529   1.000
    H55     H    0.65946   0.86371   0.88562   1.000
    H56     H    0.08085   0.46108   0.87992   1.000
    H57     H    0.08018   0.96157   0.87955   1.000
    H58     H    0.58084   0.46109   0.87992   1.000
    H59     H    0.58018   0.96157   0.87955   1.000
    H60     H    0.17371   0.00728   0.88355   1.000
    H61     H    0.17464   0.50657   0.88358   1.000
    H62     H    0.67370   0.00728   0.88355   1.000
    H63     H    0.67464   0.50657   0.88358   1.000
    H64     H    0.45033   0.30828   0.18724   1.000
    H65     H    0.45079   0.80832   0.18704   1.000
    H66     H    0.95032   0.30828   0.18724   1.000
    H67     H    0.95078   0.80832   0.18704   1.000
    H68     H    0.38909   0.27537   0.25832   1.000
    H69     H    0.38992   0.77510   0.25816   1.000
    H70     H    0.88908   0.27537   0.25831   1.000
    H71     H    0.88991   0.77510   0.25816   1.000
    H72     H    0.00497   0.34931   0.41764   1.000
    H73     H    0.00476   0.84996   0.41738   1.000
    H74     H    0.50496   0.34931   0.41764   1.000
    H75     H    0.50475   0.84996   0.41738   1.000
    H76     H    0.41156   0.38647   0.38592   1.000
    H77     H    0.41151   0.88717   0.38548   1.000
    H78     H    0.91156   0.38647   0.38592   1.000
    H79     H    0.91150   0.88717   0.38548   1.000
    H80     H    0.33178   0.28882   0.37908   1.000
    H81     H    0.33137   0.78972   0.37907   1.000
    H82     H    0.83177   0.28882   0.37908   1.000
    H83     H    0.83137   0.78972   0.37907   1.000
    H84     H    0.42506   0.24282   0.38389   1.000
    H85     H    0.42449   0.74352   0.38391   1.000
    H86     H    0.92505   0.24282   0.38389   1.000
    H87     H    0.92448   0.74352   0.38391   1.000
    H88     H    0.30164   0.05773   0.31296   1.000
    H89     H    0.30112   0.55808   0.31302   1.000
    H90     H    0.80163   0.05773   0.31296   1.000
    H91     H    0.80111   0.55808   0.31302   1.000
    H92     H    0.36281   0.02502   0.24178   1.000
    H93     H    0.36188   0.52516   0.24173   1.000
    H94     H    0.86280   0.02502   0.24178   1.000
    H95     H    0.86187   0.52516   0.24173   1.000
    H96     H    0.24684   0.09958   0.08271   1.000
    H97     H    0.24653   0.60070   0.08292   1.000
    H98     H    0.74683   0.09958   0.08271   1.000
    H99     H    0.74652   0.60070   0.08292   1.000
    H100    H    0.34053   0.13629   0.11439   1.000
    H101    H    0.34050   0.63695   0.11472   1.000
    H102    H    0.84052   0.13630   0.11439   1.000
    H103    H    0.84049   0.63695   0.11472   1.000
    H104    H    0.41981   0.03844   0.12047   1.000
    H105    H    0.41915   0.53893   0.12009   1.000
    H106    H    0.91980   0.03844   0.12047   1.000
    H107    H    0.91915   0.53894   0.12009   1.000
    H108    H    0.32537   0.49344   0.11644   1.000
    H109    H    0.32628   0.99273   0.11647   1.000
    H110    H    0.82536   0.49344   0.11644   1.000
    H111    H    0.82627   0.99273   0.11647   1.000
    C112    C    0.08076   0.18076   0.76003   1.000
    C113    C    0.08106   0.68066   0.75980   1.000
    C114    C    0.58075   0.18076   0.76003   1.000
    C115    C    0.58105   0.68066   0.75980   1.000
    C116    C    0.01539   0.15807   0.70139   1.000
    C117    C    0.01532   0.65849   0.70115   1.000
    C118    C    0.51538   0.15807   0.70139   1.000
    C119    C    0.51531   0.65849   0.70115   1.000
    C120    C    0.05001   0.15545   0.62051   1.000
    C121    C    0.04982   0.65608   0.62023   1.000
    C122    C    0.55000   0.15545   0.62051   1.000
    C123    C    0.54981   0.65608   0.62023   1.000
    C124    C    0.10347   0.21227   0.59698   1.000
    C125    C    0.10310   0.71307   0.59689   1.000
    C126    C    0.60346   0.21227   0.59698   1.000
    C127    C    0.60309   0.71307   0.59689   1.000
    C128    C    0.16746   0.43080   0.73998   1.000
    C129    C    0.16701   0.93107   0.74005   1.000
    C130    C    0.66745   0.43080   0.73997   1.000
    C131    C    0.66700   0.93107   0.74005   1.000
    C132    C    0.23306   0.40806   0.79847   1.000
    C133    C    0.23273   0.90870   0.79862   1.000
    C134    C    0.73305   0.40806   0.79847   1.000
    C135    C    0.73272   0.90871   0.79862   1.000
    C136    C    0.19867   0.40536   0.87939   1.000
    C137    C    0.19833   0.90615   0.87955   1.000
    C138    C    0.69867   0.40536   0.87938   1.000
    C139    C    0.69833   0.90615   0.87955   1.000
    C140    C    0.14634   0.46260   0.90321   1.000
    C141    C    0.14553   0.96325   0.90310   1.000
    C142    C    0.64633   0.46260   0.90321   1.000
    C143    C    0.64553   0.96325   0.90310   1.000
    C144    C    0.41893   0.31935   0.24021   1.000
    C145    C    0.41923   0.81924   0.23999   1.000
    C146    C    0.91892   0.31934   0.24021   1.000
    C147    C    0.91922   0.81924   0.23999   1.000
    C148    C    0.48467   0.34152   0.29886   1.000
    C149    C    0.48460   0.84193   0.29863   1.000
    C150    C    0.98466   0.34152   0.29886   1.000
    C151    C    0.98460   0.84193   0.29863   1.000
    C152    C    0.45017   0.34392   0.37978   1.000
    C153    C    0.44998   0.84455   0.37951   1.000
    C154    C    0.95016   0.34392   0.37978   1.000
    C155    C    0.94997   0.84455   0.37951   1.000
    C156    C    0.39689   0.28693   0.40313   1.000
    C157    C    0.39652   0.78774   0.40304   1.000
    C158    C    0.89688   0.28693   0.40313   1.000
    C159    C    0.89651   0.78774   0.40304   1.000
    C160    C    0.33298   0.06894   0.25997   1.000
    C161    C    0.33253   0.56921   0.26004   1.000
    C162    C    0.83298   0.06894   0.25997   1.000
    C163    C    0.83253   0.56921   0.26004   1.000
    C164    C    0.26726   0.09130   0.20140   1.000
    C165    C    0.26693   0.59194   0.20154   1.000
    C166    C    0.76725   0.09130   0.20140   1.000
    C167    C    0.76693   0.59194   0.20154   1.000
    C168    C    0.30166   0.09386   0.12047   1.000
    C169    C    0.30132   0.59465   0.12063   1.000
    C170    C    0.80165   0.09386   0.12047   1.000
    C171    C    0.80131   0.59465   0.12063   1.000
    C172    C    0.35446   0.03676   0.09692   1.000
    C173    C    0.35366   0.53741   0.09681   1.000
    C174    C    0.85445   0.03676   0.09691   1.000
    C175    C    0.85366   0.53741   0.09681   1.000
    O176    O    0.38095   0.20612   0.78500   1.000
    O177    O    0.38095   0.70665   0.78510   1.000
    O178    O    0.88094   0.20611   0.78500   1.000
    O179    O    0.88095   0.70665   0.78510   1.000
    O180    O    0.46276   0.28063   0.70016   1.000
    O181    O    0.46283   0.78123   0.70037   1.000
    O182    O    0.96275   0.28063   0.70016   1.000
    O183    O    0.96282   0.78123   0.70037   1.000
    O184    O    0.35971   0.20018   0.64354   1.000
    O185    O    0.35963   0.70117   0.64361   1.000
    O186    O    0.85970   0.20018   0.64354   1.000
    O187    O    0.85962   0.70117   0.64361   1.000
    O188    O    0.36747   0.45623   0.71475   1.000
    O189    O    0.36713   0.95690   0.71473   1.000
    O190    O    0.86746   0.45623   0.71475   1.000
    O191    O    0.86712   0.95690   0.71473   1.000
    O192    O    0.28547   0.03126   0.79957   1.000
    O193    O    0.28552   0.53074   0.79932   1.000
    O194    O    0.78546   0.03126   0.79957   1.000
    O195    O    0.78551   0.53074   0.79932   1.000
    O196    O    0.38856   0.45059   0.85634   1.000
    O197    O    0.38842   0.95070   0.85621   1.000
    O198    O    0.88855   0.45059   0.85634   1.000
    O199    O    0.88841   0.95071   0.85621   1.000
    O200    O    0.11904   0.29336   0.21491   1.000
    O201    O    0.11904   0.79389   0.21502   1.000
    O202    O    0.61903   0.29336   0.21491   1.000
    O203    O    0.61903   0.79389   0.21502   1.000
    O204    O    0.03716   0.21878   0.29964   1.000
    O205    O    0.03723   0.71937   0.29986   1.000
    O206    O    0.53715   0.21878   0.29964   1.000
    O207    O    0.53722   0.71937   0.29986   1.000
    O208    O    0.14036   0.29884   0.35641   1.000
    O209    O    0.14028   0.79983   0.35648   1.000
    O210    O    0.64035   0.29884   0.35641   1.000
    O211    O    0.64027   0.79983   0.35648   1.000
    O212    O    0.13286   0.04310   0.28529   1.000
    O213    O    0.13253   0.54378   0.28526   1.000
    O214    O    0.63285   0.04310   0.28529   1.000
    O215    O    0.63252   0.54378   0.28526   1.000
    O216    O    0.21448   0.46927   0.20068   1.000
    O217    O    0.21452   0.96874   0.20045   1.000
    O218    O    0.71447   0.46927   0.20068   1.000
    O219    O    0.71452   0.96874   0.20045   1.000
    O220    O    0.11157   0.04930   0.14381   1.000
    O221    O    0.11143   0.54942   0.14367   1.000
    O222    O    0.61157   0.04930   0.14381   1.000
    O223    O    0.61143   0.54942   0.14367   1.000
loop_
    _geom_bond_atom_site_label_1
    _geom_bond_atom_site_label_2
    _geom_bond_distance
    _geom_bond_site_symmetry_2
    _ccdc_geom_bond_type
    H96    C168      1.09722      .   S
    H98    C170      1.09723      .   S
    H99    C171      1.09716      .   S
    H97    C169      1.09716      .   S
    C175   H110      1.09679      .   S
    C175   H107      1.10468      .   S
    C175   C171      1.53346      .   S
    C173   H108      1.09681      .   S
    C173   H105      1.10467      .   S
    C173   C169      1.53344      .   S
    C174   H111      1.09664  1_545   S
    C174   H106      1.10462      .   S
    C174   C170      1.53367      .   S
    C172   H109      1.09664  1_545   S
    C172   C168      1.53368      .   S
    C172   H104      1.10462      .   S
    H100   C168      1.09686      .   S
    H102   C170      1.09687      .   S
    H103   C171      1.09679      .   S
    H101   C169      1.09679      .   S
    C170   C166      1.55231      .   S
    C168   C164      1.55231      .   S
    C171   C167      1.55213      .   S
    C169   C165      1.55213      .   S
    O223   P15       1.51780      .   S
    O221   P13       1.51781      .   S
    O222   P14       1.51733      .   S
    O220   P12       1.51731      .   S
    H65    C145      1.09820      .   S
    H67    C147      1.09820      .   S
    H64    C144      1.09818      .   S
    H66    C146      1.09818      .   S
    O219   P14       1.55751  1_565   S
    O217   P12       1.55752  1_565   S
    O218   P15       1.55808      .   S
    O216   P13       1.55808      .   S
    C166   P14       1.90659      .   S
    C166   C162      1.54270      .   S
    C164   P12       1.90659      .   S
    C164   C160      1.54270      .   S
    C167   P15       1.90690      .   S
    C167   C163      1.54294      .   S
    C165   P13       1.90688      .   S
    C165   C161      1.54294      .   S
    P14    O214      1.55109      .   S
    P12    O212      1.55109      .   S
    P15    O215      1.55060      .   S
    P13    O213      1.55062      .   S
    O202   P10       1.55068      .   S
    O200   P8        1.55068      .   S
    O203   P11       1.55103      .   S
    O201   P9        1.55101      .   S
    C145   H69       1.09815      .   S
    C145   C149      1.54276      .   S
    C147   H71       1.09817      .   S
    C147   C151      1.54277      .   S
    C146   H70       1.09825      .   S
    C146   C150      1.54313      .   S
    C144   H68       1.09825      .   S
    C144   C148      1.54313      .   S
    H95    C163      1.09813      .   S
    H93    C161      1.09813      .   S
    H94    C162      1.09825      .   S
    H92    C160      1.09827      .   S
    C162   H90       1.09817      .   S
    C160   H88       1.09816      .   S
    C163   H91       1.09824      .   S
    C161   H89       1.09823      .   S
    P10    C148      1.90811      .   S
    P10    O206      1.55789      .   S
    P10    O210      1.51790      .   S
    P8     C150      1.90829  1_455   S
    P8     O204      1.55789      .   S
    P8     O208      1.51790      .   S
    P11    C149      1.90568      .   S
    P11    O207      1.55794      .   S
    P11    O211      1.51794      .   S
    P9     C151      1.90586  1_455   S
    P9     O205      1.55796      .   S
    P9     O209      1.51793      .   S
    C149   C153      1.55298      .   S
    C151   C155      1.55297      .   S
    C148   C152      1.55282      .   S
    C150   C154      1.55282      .   S
    H83    C159      1.10474      .   S
    H81    C157      1.10474      .   S
    H80    C156      1.10472      .   S
    H82    C158      1.10472      .   S
    C155   H79       1.09670      .   S
    C155   C159      1.53353      .   S
    C155   H73       1.09744  1_655   S
    C153   H77       1.09669      .   S
    C153   C157      1.53355      .   S
    C153   H75       1.09723      .   S
    C154   H78       1.09684      .   S
    C154   C158      1.53398      .   S
    C154   H72       1.09747  1_655   S
    C152   H76       1.09686      .   S
    C152   C156      1.53397      .   S
    C152   H74       1.09729      .   S
    H86    C158      1.09686      .   S
    H84    C156      1.09686      .   S
    H85    C157      1.09688      .   S
    H87    C159      1.09688      .   S
    H27    C121      1.09749  1_655   S
    H25    C123      1.09730      .   S
    H26    C120      1.09743  1_655   S
    H24    C122      1.09725      .   S
    C125   H37       1.09686      .   S
    C125   C121      1.53397      .   S
    C125   H33       1.10471      .   S
    C127   H39       1.09685      .   S
    C127   C123      1.53397      .   S
    C127   H35       1.10471      .   S
    C124   H36       1.09688      .   S
    C124   C120      1.53355      .   S
    C124   H32       1.10475      .   S
    C126   H38       1.09688      .   S
    C126   C122      1.53353      .   S
    C126   H34       1.10473      .   S
    H31    C123      1.09685      .   S
    H29    C121      1.09684      .   S
    H30    C122      1.09669      .   S
    H28    C120      1.09668      .   S
    C123   C119      1.55280      .   S
    C121   C117      1.55281      .   S
    C122   C118      1.55298      .   S
    C120   C116      1.55298      .   S
    O186   P2        1.51794      .   S
    O184   P0        1.51793      .   S
    O187   P3        1.51790      .   S
    O185   P1        1.51791      .   S
    H42    C130      1.09823      .   S
    H40    C128      1.09823      .   S
    H43    C131      1.09818      .   S
    H41    C129      1.09817      .   S
    O180   P0        1.55795      .   S
    O182   P2        1.55795      .   S
    O183   P3        1.55789      .   S
    O181   P1        1.55789      .   S
    C119   P1        1.90812      .   S
    C119   C115      1.54313      .   S
    C117   P3        1.90831  1_455   S
    C117   C113      1.54313      .   S
    C118   P0        1.90568      .   S
    C118   C114      1.54276      .   S
    C116   P2        1.90586  1_455   S
    C116   C112      1.54276      .   S
    P0     O176      1.55101      .   S
    P2     O178      1.55102      .   S
    P3     O179      1.55068      .   S
    P1     O177      1.55068      .   S
    O189   P5        1.55111      .   S
    O191   P7        1.55109      .   S
    O190   P6        1.55061      .   S
    O188   P4        1.55061      .   S
    C130   H46       1.09812      .   S
    C130   C134      1.54296      .   S
    C128   H44       1.09812      .   S
    C128   C132      1.54296      .   S
    C129   H45       1.09826      .   S
    C129   C133      1.54271      .   S
    C131   H47       1.09825      .   S
    C131   C135      1.54270      .   S
    H23    C115      1.09826      .   S
    H21    C113      1.09825      .   S
    H20    C112      1.09816      .   S
    H22    C114      1.09816      .   S
    C115   H19       1.09817      .   S
    C113   H17       1.09817      .   S
    C114   H18       1.09818      .   S
    C112   H16       1.09818      .   S
    P6     C134      1.90690      .   S
    P6     O195      1.55808      .   S
    P6     O198      1.51780      .   S
    P4     C132      1.90690      .   S
    P4     O193      1.55808      .   S
    P4     O196      1.51779      .   S
    P7     C135      1.90660      .   S
    P7     O194      1.55750  1_565   S
    P7     O199      1.51732      .   S
    P5     C133      1.90659      .   S
    P5     O192      1.55751  1_565   S
    P5     O197      1.51733      .   S
    C134   C138      1.55212      .   S
    C132   C136      1.55213      .   S
    C133   C137      1.55230      .   S
    C135   C139      1.55230      .   S
    C138   H54       1.09680      .   S
    C138   C142      1.53344      .   S
    C138   H50       1.09716      .   S
    C136   H52       1.09681      .   S
    C136   C140      1.53343      .   S
    C136   H48       1.09717      .   S
    H57    C141      1.10462      .   S
    H59    C143      1.10462      .   S
    C139   H55       1.09686      .   S
    C139   C143      1.53368      .   S
    C139   H51       1.09721      .   S
    C137   H53       1.09687      .   S
    C137   C141      1.53365      .   S
    C137   H49       1.09722      .   S
    H58    C142      1.10468      .   S
    H56    C140      1.10469      .   S
    H60    C141      1.09664  1_545   S
    H62    C143      1.09664  1_545   S
    H61    C140      1.09681      .   S
    H63    C142      1.09679      .   S
